data_image0
_chemical_formula_structural       C212NC2
_chemical_formula_sum              "C214 N1"
_cell_length_a       10.639295332284284
_cell_length_b       10.639295332284284
_cell_length_c       10.639295332284284
_cell_angle_alpha    90.0
_cell_angle_beta     90.0
_cell_angle_gamma    90.0

_space_group_name_H-M_alt    "P 1"
_space_group_IT_number       1

loop_
  _space_group_symop_operation_xyz
  'x, y, z'

loop_
  _atom_site_type_symbol
  _atom_site_label
  _atom_site_symmetry_multiplicity
  _atom_site_fract_x
  _atom_site_fract_y
  _atom_site_fract_z
  _atom_site_occupancy
  C   C1        1.0  3.48266336560967e-05  0.00013555492407063208  3.498839983838267e-05  1.0000
  C   C2        1.0  0.9999960460566601  0.16672315752811853  0.16665353918588122  1.0000
  C   C3        1.0  0.1666534498799595  0.16672325192103202  0.9999961078974328  1.0000
  C   C4        1.0  0.16673280108061872  3.6472463974352547e-06  0.1667329892864343  1.0000
  C   C5        1.0  0.25007031025626053  0.08332997715541773  0.2500703499463444  1.0000
  C   C6        1.0  0.08338297472517292  0.08340632838658747  0.08338308054831987  1.0000
  C   C7        1.0  0.08337359464043015  0.24999400073256656  0.25000202143018163  1.0000
  C   C8        1.0  0.25000206124385166  0.24999408160510497  0.08337362048680703  1.0000
  C   C9        1.0  0.9999629919497671  0.9998719375668339  0.33350969197918534  1.0000
  C   C10       1.0  8.708635164136078e-06  0.1664843949680228  0.500015809314182  1.0000
  C   C11       1.0  0.16674151925713446  0.16665180818979639  0.33339150641746157  1.0000
  C   C12       1.0  0.1666510482924069  0.9999582769162436  0.5000744948226249  1.0000
  C   C13       1.0  0.24994928039319292  0.08341875691713854  0.5834585755914816  1.0000
  C   C14       1.0  0.08334592221595295  0.08324546573867068  0.4167403971514567  1.0000
  C   C15       1.0  0.08363829210531143  0.24961238901904403  0.5834202500213341  1.0000
  C   C16       1.0  0.25019214965410114  0.2500114657293026  0.4167584028058266  1.0000
  C   C17       1.0  5.089739039966476e-05  3.223538015410969e-05  0.6667259485005133  1.0000
  C   C18       1.0  0.9998286513751227  0.16685941387656902  0.8333043438035924  1.0000
  C   C19       1.0  0.16660119878232735  0.16638554221060542  0.6666954969828149  1.0000
  C   C20       1.0  0.16669908495251706  7.886875927102922e-06  0.8334126675599629  1.0000
  C   C21       1.0  0.25008638125781646  0.08326220390690844  0.9167015034514188  1.0000
  C   C22       1.0  0.08326110991955395  0.08333343464418139  0.7500656724229136  1.0000
  C   C23       1.0  0.08314085405359421  0.2501339759388469  0.9166021723229437  1.0000
  C   C24       1.0  0.2496645904717804  0.24962117503791928  0.7500022120200809  1.0000
  C   C25       1.0  0.9997354003827436  0.33358030239876646  0.9997353474879189  1.0000
  C   C26       1.0  1.3583990455412666e-05  0.4999860381010741  0.1663735948698367  1.0000
  C   C27       1.0  0.16637355598219955  0.49998610291603396  1.3640003855675407e-05  1.0000
  C   C28       1.0  0.16666083409163682  0.33332076621203993  0.16666082792436557  1.0000
  C   C29       1.0  0.2501287691758589  0.4166007474258663  0.2501287114254595  1.0000
  C   C30       1.0  0.0831820413847897  0.41668419945757196  0.08318208457323584  1.0000
  C   C31       1.0  0.08380873516662683  0.5834025546101858  0.24947704541630203  1.0000
  C   C32       1.0  0.24947712820008833  0.5834026634923575  0.083808784928966  1.0000
  C   C33       1.0  6.285981821202738e-05  0.33329998692866136  0.3332720499449992  1.0000
  C   C34       1.0  0.0004895003847999444  0.49990097028833824  0.4996091660157467  1.0000
  C   C35       1.0  0.1668677917839197  0.49989525295860004  0.3332398517458234  1.0000
  C   C36       1.0  0.166835521932275  0.33320712861078816  0.4999862070845118  1.0000
  C   C37       1.0  0.2500315452673484  0.41656561500899186  0.5834718269197146  1.0000
  C   C38       1.0  0.08363823042624985  0.4165516967118295  0.4165748948593707  1.0000
  C   C39       1.0  0.08339729597970358  0.5832717277582441  0.5832397433300053  1.0000
  C   C40       1.0  0.2501102365065122  0.583259768913645  0.4167527956550976  1.0000
  C   C41       1.0  0.0005234461452524406  0.3329012805582384  0.6663619456932974  1.0000
  C   C42       1.0  0.9991055525140466  0.5008109380634396  0.832947364103619  1.0000
  C   C43       1.0  0.16663445658425405  0.5000860230692843  0.6666877767702722  1.0000
  C   C44       1.0  0.1663763270607672  0.3334100012822622  0.8333831396030922  1.0000
  C   C45       1.0  0.24969559332112573  0.41663593378453856  0.9167473259306531  1.0000
  C   C46       1.0  0.08302572029860993  0.41688815563963993  0.7498073446061573  1.0000
  C   C47       1.0  0.08305791036428516  0.583447866218367  0.9165085586191466  1.0000
  C   C48       1.0  0.24996039026291644  0.5833096296379663  0.750110755504223  1.0000
  C   C49       1.0  0.9999530287438132  0.6667259992105213  0.9999531239870624  1.0000
  C   C50       1.0  1.579124417591305e-05  0.8334064182506521  0.16667299853871123  1.0000
  C   C51       1.0  0.1666726828466976  0.8334065984634186  1.6066967890380363e-05  1.0000
  C   C52       1.0  0.1665864167700611  0.6665629802284674  0.16658649264298964  1.0000
  C   C53       1.0  0.24986970562574898  0.7499666570035732  0.24986981824359017  1.0000
  C   C54       1.0  0.08331503087421119  0.7500706956652408  0.08331526246584199  1.0000
  C   C55       1.0  0.08333928647063646  0.916644159559376  0.25010877657988395  1.0000
  C   C56       1.0  0.2501086067602067  0.9166443203224481  0.08333954133497834  1.0000
  C   C57       1.0  0.001080957676043583  0.6664502154052692  0.3323243618618447  1.0000
  C   C58       1.0  0.9994386303710512  0.8331203945133919  0.5006382876788221  1.0000
  C   C59       1.0  0.16663649492897742  0.8333754763333858  0.3334866279915221  1.0000
  C   C60       1.0  0.16674624148984774  0.6666507950604714  0.5000930976855158  1.0000
  C   C61       1.0  0.2500702912837211  0.7499404034293353  0.5834756167017643  1.0000
  C   C62       1.0  0.08330917064202907  0.7498498426260491  0.4167653592777603  1.0000
  C   C63       1.0  0.08326537074651702  0.9165846971521163  0.5834454068947861  1.0000
  C   C64       1.0  0.24998627306728863  0.9166920368598885  0.4167277710051744  1.0000
  C   C65       1.0  0.9997700446758971  0.6666982906466206  0.6665223633832815  1.0000
  C   C66       1.0  0.0002612716360992983  0.8334883335382215  0.8334642179039337  1.0000
  C   C67       1.0  0.16671225426236552  0.83331808772259  0.6667420366431566  1.0000
  C   C68       1.0  0.16659791715411054  0.6667072100198942  0.8333381606974045  1.0000
  C   C69       1.0  0.24990188630832696  0.7499564021149073  0.9168745059017185  1.0000
  C   C70       1.0  0.08336772641566477  0.7500107424634114  0.7499766030701082  1.0000
  C   C71       1.0  0.08345943833579111  0.9168181063663686  0.9168055878150383  1.0000
  C   C72       1.0  0.2500666320337524  0.9166331756122871  0.7501298875475697  1.0000
  C   C73       1.0  0.33350951590279737  0.9998722431681407  0.9999632353740066  1.0000
  C   C74       1.0  0.33339157502720285  0.16665190914205896  0.16674160768361118  1.0000
  C   C75       1.0  0.500015941448028  0.1664846310725845  8.810041764137203e-06  1.0000
  C   C76       1.0  0.5000745552076545  0.9999583476283844  0.16665131044756357  1.0000
  C   C77       1.0  0.5834586893084802  0.0834186570129715  0.24994949992135607  1.0000
  C   C78       1.0  0.4167404490679493  0.08324564506245297  0.08334612498915607  1.0000
  C   C79       1.0  0.4167586144148373  0.25001152403637544  0.2501921429314065  1.0000
  C   C80       1.0  0.58342047110143  0.24961270506570654  0.08363821905798871  1.0000
  C   C81       1.0  0.33342473734998457  1.2485138242141704e-05  0.33342478149476557  1.0000
  C   C82       1.0  0.33348681183890383  0.16675346612985031  0.500097539073306  1.0000
  C   C83       1.0  0.5000977326214633  0.166753452694267  0.3334868040827907  1.0000
  C   C84       1.0  0.5000369820738333  0.00011970016017372874  0.5000370785994595  1.0000
  C   C85       1.0  0.5834227325608561  0.08332384147301082  0.5834226391146595  1.0000
  C   C86       1.0  0.41673669620323534  0.08344671419705084  0.41673662208913775  1.0000
  C   C87       1.0  0.4168217513237785  0.2501907187580586  0.5835172001361689  1.0000
  C   C88       1.0  0.5835175258277987  0.25019065235826005  0.4168215882793386  1.0000
  C   C89       1.0  0.33312492474817335  0.00025802427045969374  0.6667239741814025  1.0000
  C   C90       1.0  0.33344926012832143  0.16644756090246862  0.8334413713732498  1.0000
  C   C91       1.0  0.500208417454345  0.16676329938808968  0.6667751216030028  1.0000
  C   C92       1.0  0.5007193952894908  0.9991710098187968  0.8332573357672931  1.0000
  C   C93       1.0  0.5835010887537208  0.08319442150756436  0.9165690147018272  1.0000
  C   C94       1.0  0.4170255454432076  0.0830700075843303  0.749966046550417  1.0000
  C   C95       1.0  0.41668340286660716  0.24988730194531755  0.9167194568398014  1.0000
  C   C96       1.0  0.5833846305897293  0.2503428691968744  0.7500001148933907  1.0000
  C   C97       1.0  0.3332721564341455  0.33330013343178894  6.287279983661011e-05  1.0000
  C   C98       1.0  0.33324004414654507  0.49989537942973283  0.16686790530248233  1.0000
  C   C99       1.0  0.499609445274764  0.49990135834557964  0.0004892105945967445  1.0000
  C   C100      1.0  0.4999865293116741  0.33320731834595985  0.16683560829173155  1.0000
  C   C101      1.0  0.5834722170596789  0.4165656976171364  0.25003173339232715  1.0000
  C   C102      1.0  0.4165751581137345  0.41655189093405376  0.08363820043519321  1.0000
  C   C103      1.0  0.4167530423215031  0.583259829261451  0.2501105007201523  1.0000
  C   C104      1.0  0.58324004667749  0.5832719453301235  0.0833973567603766  1.0000
  C   C105      1.0  0.3335564756650441  0.333397352909474  0.333556347890538  1.0000
  C   C106      1.0  0.3336685911274319  0.5002108572456558  0.5004265213035796  1.0000
  C   C107      1.0  0.5004268872535421  0.5002109548946801  0.3336688970039422  1.0000
  C   C108      1.0  0.5005725044353794  0.3340877464853085  0.5005722439288541  1.0000
  C   C109      1.0  0.5840818800881035  0.41826276683485375  0.5840816020320463  1.0000
  C   C110      1.0  0.41701798000058893  0.41689230456872817  0.41701783536637865  1.0000
  C   C111      1.0  0.4171632858474089  0.5834996372136193  0.5840507819032453  1.0000
  C   C112      1.0  0.5840511442707795  0.5834996951856026  0.4171639451614043  1.0000
  C   C113      1.0  0.3328030903140129  0.3328243823694616  0.6669699658780909  1.0000
  C   C114      1.0  0.3329276074254024  0.4999666362818087  0.8337258692071502  1.0000
  C   C115      1.0  0.5005344714420232  0.5013030251954151  0.6682736158325079  1.0000
  C   C116      1.0  0.49989233754857976  0.33335166192173965  0.8335001089687182  1.0000
  C   C117      1.0  0.583498266418001  0.41590295976696684  0.9178613223583431  1.0000
  C   C118      1.0  0.41564722675969495  0.415936942865754  0.7499089009886285  1.0000
  C   C119      1.0  0.4147948957788771  0.583797403055126  0.9186918671751586  1.0000
  C   C120      1.0  0.5741690996492872  0.5773213675234744  0.7593152753648336  1.0000
  C   C121      1.0  0.3323244446269943  0.6664505160373265  0.0010808994073756408  1.0000
  C   C122      1.0  0.3334865698042346  0.8333756053034803  0.1666367346986082  1.0000
  C   C123      1.0  0.5006382636421487  0.8331206843515837  0.9994387700229732  1.0000
  C   C124      1.0  0.500093325222346  0.6666509372624536  0.16674654861363256  1.0000
  C   C125      1.0  0.5834757837548743  0.7499403263658465  0.2500707837897862  1.0000
  C   C126      1.0  0.416765449786559  0.7498500732271048  0.08330940886624219  1.0000
  C   C127      1.0  0.416727819129038  0.9166920635964355  0.2499865296007613  1.0000
  C   C128      1.0  0.5834455003120298  0.9165847871258035  0.0832656952957688  1.0000
  C   C129      1.0  0.33309615660799313  0.6666102009905048  0.333096235556961  1.0000
  C   C130      1.0  0.33326378694349335  0.8333290744415562  0.5000718534520782  1.0000
  C   C131      1.0  0.5000718775983032  0.8333289444824433  0.33326417909205175  1.0000
  C   C132      1.0  0.5005439062093165  0.6664610901501596  0.5005444178638407  1.0000
  C   C133      1.0  0.5754031126892946  0.7580151610214153  0.5754049160755281  1.0000
  C   C134      1.0  0.41607105878945116  0.749825176354292  0.4160712785743935  1.0000
  C   C135      1.0  0.41595149791788677  0.9174272725867743  0.5836262975493911  1.0000
  C   C136      1.0  0.5836262278954729  0.9174267311503658  0.41595224314705637  1.0000
  C   C137      1.0  0.3336157787846466  0.6666355208690106  0.6668479335814964  1.0000
  C   C138      1.0  0.33361251749553267  0.8330036920582844  0.833221205036717  1.0000
  C   C139      1.0  0.5003764053500902  0.8325131264082516  0.6663946913297816  1.0000
  C   C140      1.0  0.4991719382187471  0.6647613764766817  0.8341390308893337  1.0000
  C   C141      1.0  0.5838963082849765  0.7489788293964348  0.9157314935169093  1.0000
  C   C142      1.0  0.4170288242282408  0.7493013808023945  0.7502289874847204  1.0000
  C   C143      1.0  0.4169718022020253  0.9163441435737042  0.9165407783702153  1.0000
  C   C144      1.0  0.5844593418555293  0.9153243312545768  0.7493425691447405  1.0000
  C   C145      1.0  0.6667260317102317  3.2332479261347976e-05  5.10810576598401e-05  1.0000
  C   C146      1.0  0.6666956926448235  0.1663855735081439  0.1666012816466622  1.0000
  C   C147      1.0  0.8333044193067989  0.16685944111322612  0.9998286886007868  1.0000
  C   C148      1.0  0.8334125659646523  7.653085698639421e-06  0.16669941913327  1.0000
  C   C149      1.0  0.9167014163838932  0.08326198463042214  0.25008655057442103  1.0000
  C   C150      1.0  0.750065738805064  0.0833334040100241  0.08326129811293945  1.0000
  C   C151      1.0  0.7500023854109313  0.24962108462569044  0.24966459318556813  1.0000
  C   C152      1.0  0.9166022358379631  0.25013398472548465  0.08314089138179948  1.0000
  C   C153      1.0  0.666723983706072  0.0002576271820366801  0.3331253920683607  1.0000
  C   C154      1.0  0.666775304354499  0.16676317989024486  0.5002083152019501  1.0000
  C   C155      1.0  0.8334413944972183  0.1664473501607692  0.33344932129531546  1.0000
  C   C156      1.0  0.8332572304781333  0.9991706989120462  0.5007194904897571  1.0000
  C   C157      1.0  0.9165689105165007  0.08319421072467995  0.583501013282349  1.0000
  C   C158      1.0  0.7499660763317177  0.0830697492992091  0.41702566174422384  1.0000
  C   C159      1.0  0.7500004028052738  0.2503427096650733  0.5833843642662716  1.0000
  C   C160      1.0  0.9167195176360079  0.24988705133378636  0.41668328051827275  1.0000
  C   C161      1.0  0.6667236032198237  0.9996646436582961  0.666723569121029  1.0000
  C   C162      1.0  0.6666556780297083  0.1668435477528579  0.8332267638406139  1.0000
  C   C163      1.0  0.8332268704268121  0.166843418483498  0.6666554994077177  1.0000
  C   C164      1.0  0.8334615523545358  0.000254421657186767  0.8334614693528228  1.0000
  C   C165      1.0  0.9167217545359246  0.08356956005159975  0.9167217458282026  1.0000
  C   C166      1.0  0.750000228882561  0.08340896443904412  0.7500001308134816  1.0000
  C   C167      1.0  0.7498736886577183  0.25033718445477227  0.9165053743035874  1.0000
  C   C168      1.0  0.9165055732368124  0.2503370330269613  0.7498734058365335  1.0000
  C   C169      1.0  0.6663622617492522  0.3329018431842602  0.0005229795136940236  1.0000
  C   C170      1.0  0.6666880960754449  0.5000861537265829  0.16663463672609968  1.0000
  C   C171      1.0  0.8329475438741207  0.5008110146125746  0.9991053772182051  1.0000
  C   C172      1.0  0.8333832818755323  0.3334100257360941  0.16637634587785444  1.0000
  C   C173      1.0  0.9167473993210036  0.4166358617377657  0.24969559962956936  1.0000
  C   C174      1.0  0.7498075985891047  0.4168883775913649  0.08302568998225572  1.0000
  C   C175      1.0  0.750110962028776  0.5833095279704857  0.24996072229400426  1.0000
  C   C176      1.0  0.9165085318323265  0.583447892278667  0.08305802935338735  1.0000
  C   C177      1.0  0.6669703651535296  0.3328242108037748  0.3328029944317775  1.0000
  C   C178      1.0  0.66827442930276  0.5013027805655136  0.5005347726018354  1.0000
  C   C179      1.0  0.8337261462770027  0.4999664577033477  0.33292765174980393  1.0000
  C   C180      1.0  0.8335005253231969  0.33335130685880277  0.49989214172586377  1.0000
  C   C181      1.0  0.9178622523000136  0.41590209501366665  0.5834980761465369  1.0000
  C   C182      1.0  0.7499092478132076  0.4159365987736016  0.41564711593729387  1.0000
  C   C183      1.0  0.7593167031534366  0.5773200513162562  0.5741696996159492  1.0000
  C   C184      1.0  0.9186922348937747  0.5837971256075887  0.41479480288005216  1.0000
  C   C185      1.0  0.6666546843621706  0.3343631516733681  0.6666543130361099  1.0000
  C   C186      1.0  0.6645411648198059  0.5014139951875253  0.8326339866726544  1.0000
  C   C187      1.0  0.8326353631112262  0.501412936832901  0.6645405920232894  1.0000
  C   C188      1.0  0.8326895494347711  0.334343968738424  0.8326892796749504  1.0000
  C   C189      1.0  0.9161957376449594  0.41718744467717483  0.9161955422588834  1.0000
  C   C190      1.0  0.7491013363070947  0.4184373074181741  0.749100719107217  1.0000
  C   C191      1.0  0.7487789627128792  0.5844335793817298  0.9153761808146113  1.0000
  C   C192      1.0  0.9153766195538653  0.5844332391555881  0.7487786870007564  1.0000
  C   C193      1.0  0.6665225680590524  0.6666984661088928  0.9997699514750811  1.0000
  C   C194      1.0  0.6667420816469877  0.833317972805176  0.1667126879438961  1.0000
  C   C195      1.0  0.8334642552485567  0.8334882868160131  0.00026137510375653824  1.0000
  C   C196      1.0  0.8333381454130117  0.6667070761328691  0.16659822305665478  1.0000
  C   C197      1.0  0.9168743507827738  0.749956096422506  0.24990224394013316  1.0000
  C   C198      1.0  0.7499766751830612  0.7500107192022456  0.08336795438258217  1.0000
  C   C199      1.0  0.7501298644670847  0.9166328278144185  0.250067136174222  1.0000
  C   C200      1.0  0.9168054721792248  0.9168179784373542  0.08345968231253793  1.0000
  C   C201      1.0  0.6668481441379772  0.6666353583248837  0.3336163159092036  1.0000
  C   C202      1.0  0.6663944746222538  0.8325122135526052  0.5003778031961906  1.0000
  C   C203      1.0  0.8332210289072345  0.8330032422937826  0.33361308923929356  1.0000
  C   C204      1.0  0.8341394799451279  0.6647605840718949  0.4991723218174314  1.0000
  C   C205      1.0  0.915731660310278  0.7489785498325463  0.5838962787971752  1.0000
  C   C206      1.0  0.7502289530588265  0.7493007267967763  0.41702967449185535  1.0000
  C   C207      1.0  0.7493425728618307  0.9153240704214514  0.584459632519707  1.0000
  C   C208      1.0  0.9165405907568461  0.916343757083899  0.41697203659384374  1.0000
  C   C209      1.0  0.6691447600108024  0.8320341298851309  0.8324213437943044  1.0000
  C   C210      1.0  0.8324214541531811  0.832033928588344  0.6691446873056307  1.0000
  C   C211      1.0  0.8320123087262509  0.6691034852831026  0.8320119940957079  1.0000
  C   C212      1.0  0.9169445307996476  0.7503242808715935  0.9169444665714938  1.0000
  N   N1        1.0  0.7545929665742994  0.754811339169717  0.7545929613761703  1.0000
  C   C213      1.0  0.7502756943182186  0.9170300418964611  0.9171223084363113  1.0000
  C   C214      1.0  0.9171222466707853  0.9170299157791882  0.750275613714011  1.0000
